$ MSC.Nastran input file created on August    25, 2019 at 14:40:18 by
$ Patran 2018  (Student Edition)
$ Direct Text Input for Nastran System Cell Section
$ Direct Text Input for File Management Section
$ Direct Text Input for Executive Control
$ Linear Static Analysis, Database
SOL 101
CEND
$ Direct Text Input for Global Case Control Data
TITLE = MSC.Nastran job created on 25-Aug-19 at 14:09:23
ECHO = NONE
SUBCASE 1
$ Subcase name : LD01.test
   SUBTITLE=LD01.test
   SPC = 2
   LOAD = 2
   DISPLACEMENT(PLOT)=ALL
   SPCFORCES(PLOT)=ALL
   STRESS(PLOT)=ALL
BEGIN BULK
$ Direct Text Input for Bulk Data
PARAM    POST    0
PARAM    AUTOSPC NO
PARAM   PRTMAXIM YES
$ Elements and Element Properties for region : prop.test.0
PSHELL   1       1      .01      1               1
$ Pset: "prop.test.0" will be imported as: "pshell.1"
CQUAD4   1       1       1       2       13      12
CQUAD4   2       1       2       3       14      13
CQUAD4   3       1       3       4       15      14
CQUAD4   4       1       4       5       16      15
CQUAD4   5       1       5       6       17      16
CQUAD4   7       1       7       8       19      18
CQUAD4   8       1       8       9       20      19
CQUAD4   10      1       10      11      22      21
CQUAD4   11      1       23      24      35      34
CQUAD4   12      1       24      25      36      35
CQUAD4   13      1       25      26      37      36
CQUAD4   14      1       26      27      38      37
CQUAD4   15      1       27      28      39      38
CQUAD4   16      1       28      29      40      39
CQUAD4   17      1       29      30      41      40
CQUAD4   18      1       30      31      42      41
CQUAD4   19      1       31      32      43      42
CQUAD4   20      1       32      33      44      43
CQUAD4   21      1       34      35      46      45
CQUAD4   22      1       35      36      47      46
$ ... 904 like lines cut
CTRIA3   945     1       1113    783     784
CTRIA3   946     1       784     799     1113
CTRIA3   947     1       798     1113    799
CTRIA3   948     1       1167    20      9
CTRIA3   949     1       9       10      1167
CTRIA3   950     1       21      1167    10
CQUAD4   10744   1       10350   10351   10356   10355
CQUAD4   10745   1       10351   10352   10357   10356
CQUAD4   10746   1       10352   10353   10360   10357
CQUAD4   10747   1       10353   10413   10377   10360
CQUAD4   10748   1       10354   10355   10359   10358
CQUAD4   10749   1       10355   10356   10361   10359
CQUAD4   10750   1       10356   10357   10363   10361
CQUAD4   10751   1       10357   10360   10368   10363
CQUAD4   10752   1       10360   10377   10379   10368
CQUAD4   10753   1       10358   10359   10364   10362
CQUAD4   10754   1       10359   10361   10365   10364
CQUAD4   10755   1       10361   10363   10369   10365
CQUAD4   10756   1       10363   10368   10378   10369
CQUAD4   10757   1       10368   10379   10388   10378
CQUAD4   10758   1       10379   10377   10400   10388
CQUAD4   10759   1       10377   10413   10412   10400
CQUAD4   10760   1       10362   10364   10367   10366
CQUAD4   10761   1       10364   10365   10371   10367
CQUAD4   10762   1       10365   10369   10376   10371
CQUAD4   10763   1       10369   10378   10386   10376
$ ... 33 like lines cut
CTRIA3   10797   1       10414   6       83
CTRIA3   10798   1       83      84      10414
CTRIA3   10799   1       7       10414   84
CQUAD4   10800   1       10349   10418   10420   10419
CQUAD4   10801   1       10418   10350   10355   10420
CQUAD4   10802   1       10419   10420   10355   10354
CTRIA3   10803   1       10419   828     829
CTRIA3   10804   1       829     844     10419
CTRIA3   10805   1       843     10419   844
CQUAD4   10806   1       768     10441   10440   96
CQUAD4   10808   1       1125    10442   10441   1119
CQUAD4   10809   1       1131    10443   10442   1125
CQUAD4   10810   1       1137    10444   10443   1131
CQUAD4   10811   1       1143    10445   10444   1137
CQUAD4   10812   1       1149    10446   10445   1143
CQUAD4   10813   1       10433   10446   1149    1155
CQUAD4   10814   1       10435   10446   10433   10209
CQUAD4   10815   1       10436   10445   10446   10435
CQUAD4   10816   1       10437   10444   10445   10436
CQUAD4   10817   1       10438   10443   10444   10437
CQUAD4   10818   1       10439   10442   10443   10438
CQUAD4   10819   1       10439   10440   10441   10442
CQUAD4   10820   1       10449   10447   1119    10441
CQUAD4   10821   1       768     783     10449   10441
CQUAD4   10822   1       783     1113    10447   10449
CQUAD4   10823   1       10433   1155    1161    10470
CQUAD4   10824   1       10454   10209   10433   10470
CQUAD4   10825   1       10455   10454   10470   22
CQUAD4   10827   1       10461   10092   10459   10471
$ ... 8 like lines cut
CTRIA3   10837   1       21      1161    1167
CTRIA3   10838   1       1161    21      10470
CTRIA3   10839   1       22      10470   21
CTRIA3   10840   1       398     10474   22
CTRIA3   10841   1       10474   398     1173
CTRIA3   10842   1       10462   1173    398
CQUAD4   10844   1       813     10500   10499   798
CQUAD4   10845   1       828     10501   10500   813
CQUAD4   10846   1       10354   10501   828     10419
CQUAD4   10847   1       10490   10502   10373   10380
CQUAD4   10848   1       10491   10503   10502   10490
CQUAD4   10849   1       10492   10504   10503   10491
CQUAD4   10850   1       1149    10504   10492   1155
CQUAD4   10851   1       1143    10505   10504   1149
CQUAD4   10852   1       1137    10506   10505   1143
CQUAD4   10853   1       1131    10507   10506   1137
CQUAD4   10854   1       1125    10508   10507   1131
CQUAD4   10855   1       10499   10508   1125    1119
CQUAD4   10856   1       10358   10509   10501   10354
CQUAD4   10857   1       10362   10510   10509   10358
CQUAD4   10858   1       10366   10511   10510   10362
CQUAD4   10859   1       10370   10512   10511   10366
CQUAD4   10860   1       10502   10512   10370   10373
CQUAD4   10861   1       10500   10513   10508   10499
CQUAD4   10862   1       10509   10513   10500   10501
CQUAD4   10863   1       10503   10514   10512   10502
$ ... 810 like lines cut
CTRIA3   11676   1       10354   10419   11272
CTRIA3   11677   1       1117    11570   1123
CTRIA3   11678   1       1123    11570   1129
CTRIA3   11679   1       1129    11570   1135
CTRIA3   11680   1       1135    11570   1141
CTRIA3   11681   1       1141    11570   1147
CTRIA3   11682   1       1147    11570   1153
CTRIA3   11683   1       1153    11570   1159
CTRIA3   11684   1       1159    11570   1165
CTRIA3   11685   1       1165    11570   1171
CTRIA3   11686   1       1171    11570   1177
CTRIA3   11687   1       1177    11570   1183
CTRIA3   11688   1       1183    11570   1189
CTRIA3   11689   1       1189    11570   1195
CTRIA3   11690   1       1195    11570   1201
$ Referenced Material Records
$ Material Record : mat.test
$ Description of Material : Date: 25-Aug-19           Time: 14:07:06
MAT1     1      100.            .23
$ Nodes of the Entire Model
GRID     1              39.637284.251385-2.24
GRID     2              40.523924.251379-1.87983
GRID     3              41.565324.251385-1.80358
GRID     4              42.609534.251385-1.78813
GRID     5              43.653714.251386-1.80670
GRID     6              44.697294.251385-1.84776
GRID     7              45.740044.251383-1.90491
GRID     8              46.782114.251385-1.97430
GRID     9              47.823444.251377-2.05373
GRID     10             48.864044.251385-2.14225
GRID     11             49.903814.251385-2.24
GRID     12             39.249993.901352-2.24279
GRID     13             40.191314.082562-1.89406
GRID     14             41.250784.124651-1.80080
GRID     15             42.315854.13572 -1.77530
GRID     16             43.380954.129689-1.78925
GRID     17             44.445114.112082-1.82925
GRID     18             45.508374.096185-1.89414
GRID     19             46.570434.055434-1.96472
GRID     20             47.631424.008244-2.04646
$ ... 2216 like lines cut
$ Loads for Load Case : LD01.test
SPCADD   2       1
LOAD     2      1.      1.       1
$ Displacement Constraints of Load Set : spine_fix
SPC1     1       123456  96      768     783     918     948     963
         978     993     1008    1023    1038    1053    1068    1083
         10022   10047   10092   10099   10101   10106   10109   10111
         10349   10350   10351   10352   10353   10408   10409   10410
         10411   10412   10413   10418   10461   10531   10532   10533
SPC1     1       123456  10705   THRU    10713
SPC1     1       123456  10789   THRU    10797
SPC1     1       123456  10918   10919   10920   10921   10922   10974
         10975   10976   10977   10978   11016   11017   11018   11019
         11056   11057   11058   11059   11103   11104   11105   11106
         11107   11151   11152   11153   11154   11155
SPC1     1       123456  11186   THRU    11193
SPC1     1       123456  11249   11314   11315   11316   11317   11318
         11376   11377   11378   11379   11380   11382   11383   11384
         11385   11386   11413   11444   11445   11446   11447   11448
         11450   11451   11452   11504   11505   11506   11507   11509
         11510   11511   11563   11564   11565   11566
$ Pressure Loads of Load Set : prop_ox
PLOAD4   1       11281  -100.                            THRU    11350
$ Referenced Coordinate Frames
ENDDATA f13109d4
