$ MSC.Nastran input file created on February  13, 2019 at 17:47:42 by
$ Patran 2017.0.3
$ Direct Text Input for Nastran System Cell Section
$ Direct Text Input for File Management Section
$ Direct Text Input for Executive Control
$ Linear Static Analysis, Database
SOL 101
CEND
$ Direct Text Input for Global Case Control Data
TITLE = MSC.Nastran job created on 13-Feb-19 at 17:37:31
ECHO = NONE
SPC = 1
SUBCASE 1
$ Subcase name : test_1
   SUBTITLE=test_1
   LOAD = 2
   DISPLACEMENT(PLOT)=ALL
   SPCFORCES(SORT1,REAL)=ALL
   STRESS(PLOT)=ALL
BEGIN BULK
$ Direct Text Input for Bulk Data
PARAM    POST    0
PARAM    AUTOSPC NO
PARAM   PRTMAXIM YES
$ Elements and Element Properties for region : p_temp
PSHELL   2       1      .01      1               1
$ Pset: "p_temp" will be imported as: "pshell.2"
CQUAD4   1       2       21      1       2       22      0
CQUAD4   2       2       22      2       3       23      0
CQUAD4   3       2       23      3       4       24      0
CQUAD4   4       2       24      4       5       25      0
CQUAD4   5       2       25      5       6       26      0
CQUAD4   6       2       26      6       7       27      0
CQUAD4   7       2       27      7       8       28      0
CQUAD4   8       2       28      8       9       29      0
CQUAD4   9       2       29      9       10      30      0
CQUAD4   10      2       30      10      11      31      0
CQUAD4   11      2       31      11      12      32      0
CQUAD4   12      2       32      12      13      33      0
CQUAD4   13      2       33      13      14      34      0
CQUAD4   14      2       34      14      15      35      0
CQUAD4   15      2       35      15      16      36      0
CQUAD4   16      2       36      16      17      37      0
CQUAD4   17      2       37      17      18      38      0
CQUAD4   18      2       38      18      19      39      0
CQUAD4   19      2       39      19      20      40      0
CQUAD4   20      2       41      21      22      42      0
$ ... 5408 like lines cut
CTRIA3   7484    2       7934    7818    7917    0
CQUAD4   7485    2       7763    7762    7935    7889    0
CQUAD4   7486    2       7762    7764    7936    7935    0
CQUAD4   7487    2       7764    7779    7937    7936    0
CQUAD4   7488    2       7779    7778    7938    7937    0
CQUAD4   7489    2       7778    7777    7939    7938    0
CQUAD4   7490    2       7777    7757    7940    7939    0
CQUAD4   7491    2       7757    7748    7941    7940    0
CQUAD4   7492    2       7748    7747    7942    7941    0
CQUAD4   7493    2       7747    7755    7943    7942    0
CQUAD4   7494    2       7768    7767    7944    7917    0
CQUAD4   7495    2       7767    7766    7945    7944    0
CQUAD4   7496    2       7766    7773    7946    7945    0
CQUAD4   7497    2       7773    7758    7947    7946    0
CQUAD4   7498    2       7758    7744    7948    7947    0
CQUAD4   7499    2       7744    7743    7949    7948    0
CQUAD4   7500    2       7743    7742    7950    7949    0
CQUAD4   7501    2       7742    7741    7951    7950    0
CQUAD4   7502    2       7741    7821    7952    7951    0
CQUAD4   7503    2       7954    7821    7820    7953    0
CQUAD4   7504    2       7955    7952    7821    7954    0
$ ... 356 like lines cut
CTRIA3   7861    2       8204    8205    8247    0
CQUAD4   7862    2       8248    8291    8290    8247    0
CQUAD4   7863    2       8249    8292    8291    8248    0
CQUAD4   7864    2       8250    8293    8292    8249    0
CQUAD4   7865    2       8251    8294    8293    8250    0
CQUAD4   7866    2       8252    8295    8294    8251    0
CQUAD4   7867    2       8253    8296    8295    8252    0
CQUAD4   7868    2       8296    8253    8254    8297    0
CQUAD4   7869    2       8255    8298    8297    8254    0
CQUAD4   7870    2       8256    8299    8298    8255    0
CQUAD4   7871    2       8257    8300    8299    8256    0
CQUAD4   7872    2       8300    8257    8258    8301    0
CQUAD4   7873    2       8301    8258    8259    8302    0
CQUAD4   7874    2       8260    8303    8302    8259    0
CQUAD4   7875    2       8261    8304    8303    8260    0
CQUAD4   7876    2       8262    8305    8304    8261    0
CQUAD4   7877    2       8263    8306    8305    8262    0
CQUAD4   7878    2       8264    8307    8306    8263    0
CQUAD4   7879    2       8265    8308    8307    8264    0
CQUAD4   7880    2       8284    8309    8267    8266    0
CQUAD4   7881    2       8268    8267    8309    8310    0
$ ... 15 like lines cut
CTRIA3   7897    2       8324    8274    8314    0
CQUAD4   7898    2       8285    8286    8325    8314    0
CQUAD4   7899    2       8286    8287    8326    8325    0
CQUAD4   7900    2       8287    8288    8327    8326    0
CQUAD4   7901    2       8288    8289    8328    8327    0
CQUAD4   7902    2       8291    8328    8289    8290    0
CQUAD4   7903    2       8292    8329    8328    8291    0
CQUAD4   7904    2       8293    8330    8329    8292    0
CQUAD4   7905    2       8294    8331    8330    8293    0
CQUAD4   7906    2       8295    8332    8331    8294    0
CQUAD4   7907    2       8296    8333    8332    8295    0
CQUAD4   7908    2       8333    8296    8297    8334    0
CQUAD4   7909    2       8334    8297    8298    8335    0
CQUAD4   7910    2       8299    8336    8335    8298    0
CQUAD4   7911    2       8300    8337    8336    8299    0
CQUAD4   7912    2       8337    8300    8301    8338    0
CQUAD4   7913    2       8338    8301    8302    8339    0
CQUAD4   7914    2       8303    8340    8339    8302    0
CQUAD4   7915    2       8340    8303    8304    8341    0
CQUAD4   7916    2       8305    8342    8341    8304    0
CQUAD4   7917    2       8306    8343    8342    8305    0
$ ... 20 like lines cut
CTRIA3   7938    2       8313    8312    8361    0
CQUAD4   7939    2       8312    8311    8362    8361    0
CQUAD4   7940    2       8311    8310    8363    8362    0
CQUAD4   7941    2       8310    8309    8323    8363    0
CQUAD4   7942    2       8365    8320    8319    8364    0
CQUAD4   7943    2       8366    8321    8320    8365    0
CQUAD4   7944    2       8321    8366    8367    8322    0
CQUAD4   7945    2       8322    8367    8368    8323    0
CQUAD4   7946    2       8318    8369    8364    8319    0
CQUAD4   7947    2       8317    8370    8369    8318    0
CQUAD4   7948    2       8316    8371    8370    8317    0
CQUAD4   7949    2       8315    8372    8371    8316    0
CQUAD4   7950    2       8372    8315    8324    8347    0
CQUAD4   7951    2       8346    8345    8348    8373    0
CQUAD4   7952    2       8373    8372    8347    8346    0
CQUAD4   7953    2       8374    8360    8361    8362    0
CQUAD4   7954    2       8383    8359    8360    8374    0
CQUAD4   7955    2       8359    8383    8382    8358    0
CQUAD4   7956    2       8358    8382    8381    8357    0
CQUAD4   7957    2       8357    8381    8384    8356    0
CQUAD4   7958    2       8375    8355    8356    8384    0
$ ... 5 like lines cut
CTRIA3   7964    2       8350    8380    8349    0
CQUAD4   7965    2       8373    8348    8349    8380    0
CQUAD4   7966    2       8380    8371    8372    8373    0
CQUAD4   7967    2       8371    8380    8379    8370    0
CQUAD4   7968    2       8370    8379    8378    8369    0
CQUAD4   7969    2       8382    8367    8366    8381    0
CQUAD4   7970    2       8367    8382    8383    8368    0
CQUAD4   7971    2       8381    8366    8365    8384    0
CQUAD4   7972    2       8364    8377    8376    8365    0
CQUAD4   7973    2       8369    8378    8377    8364    0
CQUAD4   7974    2       8375    8384    8365    8376    0
CQUAD4   7975    2       8308    8272    8344    8307    0
CQUAD4   7976    2       8226    8151    8150    8225    0
CQUAD4   7977    2       8226    8196    8308    8265    0
CQUAD4   7978    2       8159    8215    8385    8160    0
CQUAD4   7979    2       8160    8385    8386    8161    0
CQUAD4   7980    2       8387    8162    8161    8386    0
CQUAD4   7981    2       8388    8163    8162    8387    0
CQUAD4   7984    2       8165    8389    8390    8166    0
CQUAD4   7985    2       8166    8390    8391    8167    0
CQUAD4   7986    2       8392    8168    8167    8391    0
$ ... 71 like lines cut
CTRIA3   8060    2       8460    8394    8450    0
CQUAD4   8061    2       8423    8424    8461    8459    0
CQUAD4   8062    2       8424    8425    8462    8461    0
CQUAD4   8063    2       8425    8426    8463    8462    0
CQUAD4   8064    2       8426    8427    8464    8463    0
CQUAD4   8065    2       8429    8464    8427    8428    0
CQUAD4   8066    2       8462    8463    8465    8466    0
CQUAD4   8067    2       8461    8462    8466    8467    0
CQUAD4   8068    2       8459    8461    8467    8458    0
CQUAD4   8069    2       8468    8444    8445    8449    0
CQUAD4   8070    2       8469    8443    8444    8468    0
CQUAD4   8071    2       8470    8442    8443    8469    0
CQUAD4   8072    2       8442    8470    8471    8441    0
CQUAD4   8073    2       8441    8471    8472    8440    0
CQUAD4   8074    2       8440    8472    8473    8439    0
CQUAD4   8075    2       8474    8438    8439    8473    0
CQUAD4   8076    2       8475    8437    8438    8474    0
CQUAD4   8077    2       8476    8436    8437    8475    0
CQUAD4   8078    2       8436    8476    8477    8435    0
CQUAD4   8079    2       8435    8477    8478    8434    0
CQUAD4   8080    2       8434    8478    8479    8433    0
$ ... 12 like lines cut
CTRIA3   8095    2       8490    8457    8489    0
CQUAD4   8096    2       8466    8465    8480    8491    0
CQUAD4   8097    2       8491    8489    8467    8466    0
CQUAD4   8098    2       8491    8480    8479    8492    0
CTRIA3   8099    2       8478    8492    8479    0
CQUAD4   8100    2       8477    8504    8492    8478    0
CQUAD4   8101    2       8476    8493    8504    8477    0
CQUAD4   8102    2       8493    8476    8475    8494    0
CQUAD4   8103    2       8494    8475    8474    8495    0
CQUAD4   8104    2       8495    8474    8473    8496    0
CQUAD4   8105    2       8496    8473    8472    8497    0
CQUAD4   8106    2       8471    8498    8497    8472    0
CQUAD4   8107    2       8498    8471    8470    8499    0
CQUAD4   8108    2       8499    8470    8469    8500    0
CQUAD4   8109    2       8500    8469    8468    8481    0
CQUAD4   8110    2       8481    8482    8501    8500    0
CTRIA3   8111    2       8502    8484    8483    0
CQUAD4   8112    2       8484    8502    8501    8482    0
CQUAD4   8113    2       8485    8503    8502    8483    0
CQUAD4   8116    2       8493    8487    8488    8504    0
CQUAD4   8117    2       8492    8490    8489    8491    0
CQUAD4   8118    2       8490    8492    8504    8488    0
CQUAD4   8119    2       8486    8495    8496    8485    0
CQUAD4   8120    2       8485    8496    8497    8503    0
CQUAD4   8121    2       8503    8497    8498    8508    0
CQUAD4   8122    2       8500    8501    8508    8499    0
CTRIA3   8123    2       8499    8508    8498    0
CQUAD4   8124    2       8505    8374    8362    8363    0
CQUAD4   8125    2       8368    8383    8374    8505    0
CQUAD4   8126    2       8323    8368    8505    8363    0
CQUAD4   8127    2       8404    8506    8445    8405    0
CQUAD4   8128    2       8402    8401    8445    8506    0
CQUAD4   8129    2       8506    8404    8403    8402    0
CQUAD4   8130    2       8463    8464    8507    8465    0
CQUAD4   8131    2       8507    8430    8431    8465    0
CQUAD4   8132    2       8430    8507    8464    8429    0
CQUAD4   8133    2       8501    8502    8503    8508    0
CQUAD4   8134    2       8510    7717    7716    8529    0
CQUAD4   8135    2       8511    8510    8529    8530    0
CQUAD4   8136    2       8512    8511    8530    8531    0
CQUAD4   8137    2       8513    8512    8531    8532    0
CQUAD4   8138    2       8514    8513    8532    8533    0
CQUAD4   8139    2       8515    8514    8533    8534    0
CQUAD4   8140    2       8516    8515    8534    8535    0
CQUAD4   8141    2       8517    8516    8535    8536    0
CQUAD4   8142    2       8518    8517    8536    8537    0
CQUAD4   8143    2       8519    8518    8537    8538    0
$ ... 8 like lines cut
CTRIA3   8152    2       8527    8546    9326    0
CQUAD4   8153    2       8529    7716    7715    8548    0
CQUAD4   8154    2       8530    8529    8548    8549    0
CQUAD4   8155    2       8531    8530    8549    8550    0
CQUAD4   8156    2       8532    8531    8550    8551    0
CQUAD4   8157    2       8533    8532    8551    8552    0
CQUAD4   8158    2       8534    8533    8552    8553    0
CQUAD4   8159    2       8535    8534    8553    8554    0
CQUAD4   8160    2       8536    8535    8554    8555    0
CQUAD4   8161    2       8537    8536    8555    8556    0
CQUAD4   8162    2       8538    8537    8556    8557    0
CQUAD4   8163    2       8539    8538    8557    8558    0
CQUAD4   8164    2       8540    8539    8558    8559    0
CQUAD4   8165    2       8541    8540    8559    8560    0
CQUAD4   8166    2       8542    8541    8560    8561    0
CQUAD4   8167    2       8543    8542    8561    8562    0
CQUAD4   8168    2       8544    8543    8562    8563    0
CQUAD4   8169    2       8544    8563    8564    8545    0
CQUAD4   8170    2       8545    8564    8565    8546    0
CTRIA3   8171    2       8546    8565    9326    0
CQUAD4   8172    2       8548    7715    7714    8567    0
CQUAD4   8173    2       8549    8548    8567    8568    0
CQUAD4   8174    2       8550    8549    8568    8569    0
CQUAD4   8175    2       8551    8550    8569    8570    0
CQUAD4   8176    2       8552    8551    8570    8571    0
CQUAD4   8177    2       8553    8552    8571    8572    0
CQUAD4   8178    2       8554    8553    8572    8573    0
CQUAD4   8179    2       8555    8554    8573    8574    0
CQUAD4   8180    2       8556    8555    8574    8575    0
CQUAD4   8181    2       8557    8556    8575    8576    0
CQUAD4   8182    2       8558    8557    8576    8577    0
CQUAD4   8183    2       8559    8558    8577    8578    0
CQUAD4   8184    2       8560    8559    8578    8579    0
CQUAD4   8185    2       8561    8560    8579    8580    0
CQUAD4   8186    2       8562    8561    8580    8581    0
CQUAD4   8187    2       8563    8562    8581    8582    0
CQUAD4   8188    2       8563    8582    8583    8564    0
CQUAD4   8189    2       8564    8583    8584    8565    0
CTRIA3   8190    2       8565    8584    9326    0
CQUAD4   8191    2       8567    7714    7713    8586    0
CQUAD4   8192    2       8568    8567    8586    8587    0
CQUAD4   8193    2       8569    8568    8587    8588    0
CQUAD4   8194    2       8570    8569    8588    8589    0
CQUAD4   8195    2       8571    8570    8589    8590    0
CQUAD4   8196    2       8572    8571    8590    8591    0
CQUAD4   8197    2       8573    8572    8591    8592    0
CQUAD4   8198    2       8574    8573    8592    8593    0
CQUAD4   8199    2       8575    8574    8593    8594    0
CQUAD4   8200    2       8576    8575    8594    8595    0
CQUAD4   8201    2       8577    8576    8595    8596    0
CQUAD4   8202    2       8578    8577    8596    8597    0
CQUAD4   8203    2       8579    8578    8597    8598    0
CQUAD4   8204    2       8580    8579    8598    8599    0
CQUAD4   8205    2       8581    8580    8599    8600    0
CQUAD4   8206    2       8582    8581    8600    8601    0
CQUAD4   8207    2       8582    8601    8602    8583    0
CQUAD4   8208    2       8583    8602    8603    8584    0
CTRIA3   8209    2       8584    8603    9326    0
CQUAD4   8210    2       8586    7713    7712    8605    0
CQUAD4   8211    2       8587    8586    8605    8606    0
CQUAD4   8212    2       8588    8587    8606    8607    0
CQUAD4   8213    2       8589    8588    8607    8608    0
CQUAD4   8214    2       8590    8589    8608    8609    0
CQUAD4   8215    2       8591    8590    8609    8610    0
CQUAD4   8216    2       8592    8591    8610    8611    0
CQUAD4   8217    2       8593    8592    8611    8612    0
CQUAD4   8218    2       8594    8593    8612    8613    0
CQUAD4   8219    2       8595    8594    8613    8614    0
CQUAD4   8220    2       8596    8595    8614    8615    0
CQUAD4   8221    2       8597    8596    8615    8616    0
CQUAD4   8222    2       8598    8597    8616    8617    0
CQUAD4   8223    2       8599    8598    8617    8618    0
CQUAD4   8224    2       8600    8599    8618    8619    0
CQUAD4   8225    2       8601    8600    8619    8620    0
CQUAD4   8226    2       8601    8620    8621    8602    0
CQUAD4   8227    2       8602    8621    8622    8603    0
CTRIA3   8228    2       8603    8622    9326    0
CQUAD4   8229    2       8605    7712    7711    8624    0
CQUAD4   8230    2       8606    8605    8624    8625    0
CQUAD4   8231    2       8607    8606    8625    8626    0
CQUAD4   8232    2       8608    8607    8626    8627    0
CQUAD4   8233    2       8609    8608    8627    8628    0
CQUAD4   8234    2       8610    8609    8628    8629    0
CQUAD4   8235    2       8611    8610    8629    8630    0
CQUAD4   8236    2       8612    8611    8630    8631    0
CQUAD4   8237    2       8613    8612    8631    8632    0
CQUAD4   8238    2       8614    8613    8632    8633    0
CQUAD4   8239    2       8615    8614    8633    8634    0
CQUAD4   8240    2       8616    8615    8634    8635    0
CQUAD4   8241    2       8617    8616    8635    8636    0
CQUAD4   8242    2       8618    8617    8636    8637    0
CQUAD4   8243    2       8619    8618    8637    8638    0
CQUAD4   8244    2       8620    8619    8638    8639    0
CQUAD4   8245    2       8620    8639    8640    8621    0
CQUAD4   8246    2       8621    8640    8641    8622    0
CTRIA3   8247    2       8622    8641    9326    0
CQUAD4   8248    2       8624    7711    7710    8643    0
CQUAD4   8249    2       8625    8624    8643    8644    0
CQUAD4   8250    2       8626    8625    8644    8645    0
CQUAD4   8251    2       8627    8626    8645    8646    0
CQUAD4   8252    2       8628    8627    8646    8647    0
CQUAD4   8253    2       8629    8628    8647    8648    0
CQUAD4   8254    2       8630    8629    8648    8649    0
CQUAD4   8255    2       8631    8630    8649    8650    0
CQUAD4   8256    2       8632    8631    8650    8651    0
CQUAD4   8257    2       8633    8632    8651    8652    0
CQUAD4   8258    2       8634    8633    8652    8653    0
CQUAD4   8259    2       8635    8634    8653    8654    0
CQUAD4   8260    2       8636    8635    8654    8655    0
CQUAD4   8261    2       8637    8636    8655    8656    0
CQUAD4   8262    2       8638    8637    8656    8657    0
CQUAD4   8263    2       8639    8638    8657    8658    0
CQUAD4   8264    2       8639    8658    8659    8640    0
CQUAD4   8265    2       8640    8659    8660    8641    0
CTRIA3   8266    2       8641    8660    9326    0
CQUAD4   8267    2       8643    7710    7709    8662    0
CQUAD4   8268    2       8644    8643    8662    8663    0
CQUAD4   8269    2       8645    8644    8663    8664    0
CQUAD4   8270    2       8646    8645    8664    8665    0
CQUAD4   8271    2       8647    8646    8665    8666    0
CQUAD4   8272    2       8648    8647    8666    8667    0
CQUAD4   8273    2       8649    8648    8667    8668    0
CQUAD4   8274    2       8650    8649    8668    8669    0
CQUAD4   8275    2       8651    8650    8669    8670    0
CQUAD4   8276    2       8652    8651    8670    8671    0
CQUAD4   8277    2       8653    8652    8671    8672    0
CQUAD4   8278    2       8654    8653    8672    8673    0
CQUAD4   8279    2       8655    8654    8673    8674    0
CQUAD4   8280    2       8656    8655    8674    8675    0
CQUAD4   8281    2       8657    8656    8675    8676    0
CQUAD4   8282    2       8658    8657    8676    8677    0
CQUAD4   8283    2       8658    8677    8678    8659    0
CQUAD4   8284    2       8659    8678    8679    8660    0
CTRIA3   8285    2       8660    8679    9326    0
CQUAD4   8286    2       8662    7709    7708    8681    0
CQUAD4   8287    2       8663    8662    8681    8682    0
CQUAD4   8288    2       8664    8663    8682    8683    0
CQUAD4   8289    2       8665    8664    8683    8684    0
CQUAD4   8290    2       8666    8665    8684    8685    0
CQUAD4   8291    2       8667    8666    8685    8686    0
CQUAD4   8292    2       8668    8667    8686    8687    0
CQUAD4   8293    2       8669    8668    8687    8688    0
CQUAD4   8294    2       8670    8669    8688    8689    0
CQUAD4   8295    2       8671    8670    8689    8690    0
CQUAD4   8296    2       8672    8671    8690    8691    0
CQUAD4   8297    2       8673    8672    8691    8692    0
CQUAD4   8298    2       8674    8673    8692    8693    0
CQUAD4   8299    2       8675    8674    8693    8694    0
CQUAD4   8300    2       8676    8675    8694    8695    0
CQUAD4   8301    2       8677    8676    8695    8696    0
CQUAD4   8302    2       8677    8696    8697    8678    0
CQUAD4   8303    2       8678    8697    8698    8679    0
CTRIA3   8304    2       8679    8698    9326    0
CQUAD4   8306    2       8682    8681    8700    8701    0
CQUAD4   8307    2       8683    8682    8701    8702    0
CQUAD4   8308    2       8684    8683    8702    8703    0
CQUAD4   8309    2       8685    8684    8703    8704    0
CQUAD4   8310    2       8686    8685    8704    8705    0
CQUAD4   8311    2       8687    8686    8705    8706    0
CQUAD4   8312    2       8688    8687    8706    8707    0
CQUAD4   8313    2       8689    8688    8707    8708    0
CQUAD4   8314    2       8690    8689    8708    8709    0
CQUAD4   8315    2       8691    8690    8709    8710    0
CQUAD4   8316    2       8692    8691    8710    8711    0
CQUAD4   8317    2       8693    8692    8711    8712    0
CQUAD4   8318    2       8694    8693    8712    8713    0
CQUAD4   8319    2       8695    8694    8713    8714    0
CQUAD4   8320    2       8696    8695    8714    8715    0
CQUAD4   8321    2       8696    8715    8716    8697    0
CQUAD4   8322    2       8697    8716    8717    8698    0
CTRIA3   8323    2       8698    8717    9326    0
CQUAD4   8325    2       8701    8700    8719    8720    0
CQUAD4   8326    2       8702    8701    8720    8721    0
CQUAD4   8327    2       8703    8702    8721    8722    0
CQUAD4   8328    2       8704    8703    8722    8723    0
CQUAD4   8329    2       8705    8704    8723    8724    0
CQUAD4   8330    2       8706    8705    8724    8725    0
CQUAD4   8331    2       8707    8706    8725    8726    0
CQUAD4   8332    2       8708    8707    8726    8727    0
CQUAD4   8333    2       8709    8708    8727    8728    0
CQUAD4   8334    2       8710    8709    8728    8729    0
CQUAD4   8335    2       8711    8710    8729    8730    0
CQUAD4   8336    2       8712    8711    8730    8731    0
CQUAD4   8337    2       8713    8712    8731    8732    0
CQUAD4   8338    2       8714    8713    8732    8733    0
CQUAD4   8339    2       8715    8714    8733    8734    0
CQUAD4   8340    2       8715    8734    8735    8716    0
CQUAD4   8341    2       8716    8735    8736    8717    0
CTRIA3   8342    2       8717    8736    9326    0
CQUAD4   8343    2       8719    7706    7705    8738    0
CQUAD4   8344    2       8720    8719    8738    8739    0
CQUAD4   8345    2       8721    8720    8739    8740    0
CQUAD4   8346    2       8722    8721    8740    8741    0
CQUAD4   8347    2       8723    8722    8741    8742    0
CQUAD4   8348    2       8724    8723    8742    8743    0
CQUAD4   8349    2       8725    8724    8743    8744    0
CQUAD4   8350    2       8726    8725    8744    8745    0
CQUAD4   8351    2       8727    8726    8745    8746    0
CQUAD4   8352    2       8728    8727    8746    8747    0
CQUAD4   8353    2       8729    8728    8747    8748    0
CQUAD4   8354    2       8730    8729    8748    8749    0
CQUAD4   8355    2       8731    8730    8749    8750    0
CQUAD4   8356    2       8732    8731    8750    8751    0
CQUAD4   8357    2       8733    8732    8751    8752    0
CQUAD4   8358    2       8734    8733    8752    8753    0
CQUAD4   8359    2       8734    8753    8754    8735    0
CQUAD4   8360    2       8735    8754    8755    8736    0
CTRIA3   8361    2       8736    8755    9326    0
CQUAD4   8362    2       8738    7705    7704    8757    0
CQUAD4   8363    2       8739    8738    8757    8758    0
CQUAD4   8364    2       8740    8739    8758    8759    0
CQUAD4   8365    2       8741    8740    8759    8760    0
CQUAD4   8366    2       8742    8741    8760    8761    0
CQUAD4   8367    2       8743    8742    8761    8762    0
CQUAD4   8368    2       8744    8743    8762    8763    0
CQUAD4   8369    2       8745    8744    8763    8764    0
CQUAD4   8370    2       8746    8745    8764    8765    0
CQUAD4   8371    2       8747    8746    8765    8766    0
CQUAD4   8372    2       8748    8747    8766    8767    0
CQUAD4   8373    2       8749    8748    8767    8768    0
CQUAD4   8374    2       8750    8749    8768    8769    0
CQUAD4   8375    2       8751    8750    8769    8770    0
CQUAD4   8376    2       8752    8751    8770    8771    0
CQUAD4   8377    2       8753    8752    8771    8772    0
CQUAD4   8378    2       8753    8772    8773    8754    0
CQUAD4   8379    2       8754    8773    8774    8755    0
CTRIA3   8380    2       8755    8774    9326    0
CQUAD4   8381    2       8757    7704    7703    8776    0
CQUAD4   8382    2       8758    8757    8776    8777    0
CQUAD4   8383    2       8759    8758    8777    8778    0
CQUAD4   8384    2       8760    8759    8778    8779    0
CQUAD4   8385    2       8761    8760    8779    8780    0
CQUAD4   8386    2       8762    8761    8780    8781    0
CQUAD4   8387    2       8763    8762    8781    8782    0
CQUAD4   8388    2       8764    8763    8782    8783    0
CQUAD4   8389    2       8765    8764    8783    8784    0
CQUAD4   8390    2       8766    8765    8784    8785    0
CQUAD4   8391    2       8767    8766    8785    8786    0
CQUAD4   8392    2       8768    8767    8786    8787    0
CQUAD4   8393    2       8769    8768    8787    8788    0
CQUAD4   8394    2       8770    8769    8788    8789    0
CQUAD4   8395    2       8771    8770    8789    8790    0
CQUAD4   8396    2       8772    8771    8790    8791    0
CQUAD4   8397    2       8772    8791    8792    8773    0
CQUAD4   8398    2       8773    8792    8793    8774    0
CTRIA3   8399    2       8774    8793    9326    0
CQUAD4   8400    2       8776    7703    7702    8795    0
CQUAD4   8401    2       8777    8776    8795    8796    0
CQUAD4   8402    2       8778    8777    8796    8797    0
CQUAD4   8403    2       8779    8778    8797    8798    0
CQUAD4   8404    2       8780    8779    8798    8799    0
CQUAD4   8405    2       8781    8780    8799    8800    0
CQUAD4   8406    2       8782    8781    8800    8801    0
CQUAD4   8407    2       8783    8782    8801    8802    0
CQUAD4   8408    2       8784    8783    8802    8803    0
CQUAD4   8409    2       8785    8784    8803    8804    0
CQUAD4   8410    2       8786    8785    8804    8805    0
CQUAD4   8411    2       8787    8786    8805    8806    0
CQUAD4   8412    2       8788    8787    8806    8807    0
CQUAD4   8413    2       8789    8788    8807    8808    0
CQUAD4   8414    2       8790    8789    8808    8809    0
CQUAD4   8415    2       8791    8790    8809    8810    0
CQUAD4   8416    2       8791    8810    8811    8792    0
CQUAD4   8417    2       8792    8811    8812    8793    0
CTRIA3   8418    2       8793    8812    9326    0
CQUAD4   8419    2       8795    7702    7701    8814    0
CQUAD4   8420    2       8796    8795    8814    8815    0
CQUAD4   8421    2       8797    8796    8815    8816    0
CQUAD4   8422    2       8798    8797    8816    8817    0
CQUAD4   8423    2       8799    8798    8817    8818    0
CQUAD4   8424    2       8800    8799    8818    8819    0
CQUAD4   8425    2       8801    8800    8819    8820    0
CQUAD4   8426    2       8802    8801    8820    8821    0
CQUAD4   8427    2       8803    8802    8821    8822    0
CQUAD4   8428    2       8804    8803    8822    8823    0
CQUAD4   8429    2       8805    8804    8823    8824    0
CQUAD4   8430    2       8806    8805    8824    8825    0
CQUAD4   8431    2       8807    8806    8825    8826    0
CQUAD4   8432    2       8808    8807    8826    8827    0
CQUAD4   8433    2       8809    8808    8827    8828    0
CQUAD4   8434    2       8810    8809    8828    8829    0
CQUAD4   8435    2       8810    8829    8830    8811    0
CQUAD4   8436    2       8811    8830    8831    8812    0
CTRIA3   8437    2       8812    8831    9326    0
CQUAD4   8438    2       8814    7701    7700    8833    0
CQUAD4   8439    2       8815    8814    8833    8834    0
CQUAD4   8440    2       8816    8815    8834    8835    0
CQUAD4   8441    2       8817    8816    8835    8836    0
CQUAD4   8442    2       8818    8817    8836    8837    0
CQUAD4   8443    2       8819    8818    8837    8838    0
CQUAD4   8444    2       8820    8819    8838    8839    0
CQUAD4   8445    2       8821    8820    8839    8840    0
CQUAD4   8446    2       8822    8821    8840    8841    0
CQUAD4   8447    2       8823    8822    8841    8842    0
CQUAD4   8448    2       8824    8823    8842    8843    0
CQUAD4   8449    2       8825    8824    8843    8844    0
CQUAD4   8450    2       8826    8825    8844    8845    0
CQUAD4   8451    2       8827    8826    8845    8846    0
CQUAD4   8452    2       8828    8827    8846    8847    0
CQUAD4   8453    2       8829    8828    8847    8848    0
CQUAD4   8454    2       8829    8848    8849    8830    0
CQUAD4   8455    2       8830    8849    8850    8831    0
CTRIA3   8456    2       8831    8850    9326    0
CQUAD4   8457    2       8833    7700    7699    8852    0
CQUAD4   8458    2       8834    8833    8852    8853    0
CQUAD4   8459    2       8835    8834    8853    8854    0
CQUAD4   8460    2       8836    8835    8854    8855    0
CQUAD4   8461    2       8837    8836    8855    8856    0
CQUAD4   8462    2       8838    8837    8856    8857    0
CQUAD4   8463    2       8839    8838    8857    8858    0
CQUAD4   8464    2       8840    8839    8858    8859    0
CQUAD4   8465    2       8841    8840    8859    8860    0
CQUAD4   8466    2       8842    8841    8860    8861    0
CQUAD4   8467    2       8843    8842    8861    8862    0
CQUAD4   8468    2       8844    8843    8862    8863    0
CQUAD4   8469    2       8845    8844    8863    8864    0
CQUAD4   8470    2       8846    8845    8864    8865    0
CQUAD4   8471    2       8847    8846    8865    8866    0
CQUAD4   8472    2       8848    8847    8866    8867    0
CQUAD4   8473    2       8848    8867    8868    8849    0
CQUAD4   8474    2       8849    8868    8869    8850    0
CTRIA3   8475    2       8850    8869    9326    0
CQUAD4   8476    2       8852    7699    7698    8871    0
CQUAD4   8477    2       8853    8852    8871    8872    0
CQUAD4   8478    2       8854    8853    8872    8873    0
CQUAD4   8479    2       8855    8854    8873    8874    0
CQUAD4   8480    2       8856    8855    8874    8875    0
CQUAD4   8481    2       8857    8856    8875    8876    0
CQUAD4   8482    2       8858    8857    8876    8877    0
CQUAD4   8483    2       8859    8858    8877    8878    0
CQUAD4   8484    2       8860    8859    8878    8879    0
CQUAD4   8485    2       8861    8860    8879    8880    0
CQUAD4   8486    2       8862    8861    8880    8881    0
CQUAD4   8487    2       8863    8862    8881    8882    0
CQUAD4   8488    2       8864    8863    8882    8883    0
CQUAD4   8489    2       8865    8864    8883    8884    0
CQUAD4   8490    2       8866    8865    8884    8885    0
CQUAD4   8491    2       8867    8866    8885    8886    0
CQUAD4   8492    2       8867    8886    8887    8868    0
CQUAD4   8493    2       8868    8887    8888    8869    0
CTRIA3   8494    2       8869    8888    9326    0
CQUAD4   8495    2       8871    7698    7697    8890    0
CQUAD4   8496    2       8872    8871    8890    8891    0
CQUAD4   8497    2       8873    8872    8891    8892    0
CQUAD4   8498    2       8874    8873    8892    8893    0
CQUAD4   8499    2       8875    8874    8893    8894    0
CQUAD4   8500    2       8876    8875    8894    8895    0
CQUAD4   8501    2       8877    8876    8895    8896    0
CQUAD4   8502    2       8878    8877    8896    8897    0
CQUAD4   8503    2       8879    8878    8897    8898    0
CQUAD4   8504    2       8880    8879    8898    8899    0
CQUAD4   8505    2       8881    8880    8899    8900    0
CQUAD4   8506    2       8882    8881    8900    8901    0
CQUAD4   8507    2       8883    8882    8901    8902    0
CQUAD4   8508    2       8884    8883    8902    8903    0
CQUAD4   8509    2       8885    8884    8903    8904    0
CQUAD4   8510    2       8886    8885    8904    8905    0
CQUAD4   8511    2       8886    8905    8906    8887    0
CQUAD4   8512    2       8887    8906    8907    8888    0
CTRIA3   8513    2       8888    8907    9326    0
CQUAD4   8514    2       8890    7697    7696    8909    0
CQUAD4   8515    2       8891    8890    8909    8910    0
CQUAD4   8516    2       8892    8891    8910    8911    0
CQUAD4   8517    2       8893    8892    8911    8912    0
CQUAD4   8518    2       8894    8893    8912    8913    0
CQUAD4   8519    2       8895    8894    8913    8914    0
CQUAD4   8520    2       8896    8895    8914    8915    0
CQUAD4   8521    2       8897    8896    8915    8916    0
CQUAD4   8522    2       8898    8897    8916    8917    0
CQUAD4   8523    2       8899    8898    8917    8918    0
CQUAD4   8524    2       8900    8899    8918    8919    0
CQUAD4   8525    2       8901    8900    8919    8920    0
CQUAD4   8526    2       8902    8901    8920    8921    0
CQUAD4   8527    2       8903    8902    8921    8922    0
CQUAD4   8528    2       8904    8903    8922    8923    0
CQUAD4   8529    2       8905    8904    8923    8924    0
CQUAD4   8530    2       8905    8924    8925    8906    0
CQUAD4   8531    2       8906    8925    8926    8907    0
CTRIA3   8532    2       8907    8926    9326    0
CQUAD4   8533    2       8909    7696    7695    8928    0
CQUAD4   8534    2       8910    8909    8928    8929    0
CQUAD4   8535    2       8911    8910    8929    8930    0
CQUAD4   8536    2       8912    8911    8930    8931    0
CQUAD4   8537    2       8913    8912    8931    8932    0
CQUAD4   8538    2       8914    8913    8932    8933    0
CQUAD4   8539    2       8915    8914    8933    8934    0
CQUAD4   8540    2       8916    8915    8934    8935    0
CQUAD4   8541    2       8917    8916    8935    8936    0
CQUAD4   8542    2       8918    8917    8936    8937    0
CQUAD4   8543    2       8919    8918    8937    8938    0
CQUAD4   8544    2       8920    8919    8938    8939    0
CQUAD4   8545    2       8921    8920    8939    8940    0
CQUAD4   8546    2       8922    8921    8940    8941    0
CQUAD4   8547    2       8923    8922    8941    8942    0
CQUAD4   8548    2       8924    8923    8942    8943    0
CQUAD4   8549    2       8924    8943    8944    8925    0
CQUAD4   8550    2       8925    8944    8945    8926    0
CTRIA3   8551    2       8926    8945    9326    0
CQUAD4   8552    2       8928    7695    7694    8947    0
CQUAD4   8553    2       8929    8928    8947    8948    0
CQUAD4   8554    2       8930    8929    8948    8949    0
CQUAD4   8555    2       8931    8930    8949    8950    0
CQUAD4   8556    2       8932    8931    8950    8951    0
CQUAD4   8557    2       8933    8932    8951    8952    0
CQUAD4   8558    2       8934    8933    8952    8953    0
CQUAD4   8559    2       8935    8934    8953    8954    0
CQUAD4   8560    2       8936    8935    8954    8955    0
CQUAD4   8561    2       8937    8936    8955    8956    0
CQUAD4   8562    2       8938    8937    8956    8957    0
CQUAD4   8563    2       8939    8938    8957    8958    0
CQUAD4   8564    2       8940    8939    8958    8959    0
CQUAD4   8565    2       8941    8940    8959    8960    0
CQUAD4   8566    2       8942    8941    8960    8961    0
CQUAD4   8567    2       8943    8942    8961    8962    0
CQUAD4   8568    2       8943    8962    8963    8944    0
CQUAD4   8569    2       8944    8963    8964    8945    0
CTRIA3   8570    2       8945    8964    9326    0
CQUAD4   8571    2       8947    7694    7693    8966    0
CQUAD4   8572    2       8948    8947    8966    8967    0
CQUAD4   8573    2       8949    8948    8967    8968    0
CQUAD4   8574    2       8950    8949    8968    8969    0
CQUAD4   8575    2       8951    8950    8969    8970    0
CQUAD4   8576    2       8952    8951    8970    8971    0
CQUAD4   8577    2       8953    8952    8971    8972    0
CQUAD4   8578    2       8954    8953    8972    8973    0
CQUAD4   8579    2       8955    8954    8973    8974    0
CQUAD4   8580    2       8956    8955    8974    8975    0
CQUAD4   8581    2       8957    8956    8975    8976    0
CQUAD4   8582    2       8958    8957    8976    8977    0
CQUAD4   8583    2       8959    8958    8977    8978    0
CQUAD4   8584    2       8960    8959    8978    8979    0
CQUAD4   8585    2       8961    8960    8979    8980    0
CQUAD4   8586    2       8962    8961    8980    8981    0
CQUAD4   8587    2       8962    8981    8982    8963    0
CQUAD4   8588    2       8963    8982    8983    8964    0
CTRIA3   8589    2       8964    8983    9326    0
CQUAD4   8590    2       8966    7693    7692    8985    0
CQUAD4   8591    2       8967    8966    8985    8986    0
CQUAD4   8592    2       8968    8967    8986    8987    0
CQUAD4   8593    2       8969    8968    8987    8988    0
CQUAD4   8594    2       8970    8969    8988    8989    0
CQUAD4   8595    2       8971    8970    8989    8990    0
CQUAD4   8596    2       8972    8971    8990    8991    0
CQUAD4   8597    2       8973    8972    8991    8992    0
CQUAD4   8598    2       8974    8973    8992    8993    0
CQUAD4   8599    2       8975    8974    8993    8994    0
CQUAD4   8600    2       8976    8975    8994    8995    0
CQUAD4   8601    2       8977    8976    8995    8996    0
CQUAD4   8602    2       8978    8977    8996    8997    0
CQUAD4   8603    2       8979    8978    8997    8998    0
CQUAD4   8604    2       8980    8979    8998    8999    0
CQUAD4   8605    2       8981    8980    8999    9000    0
CQUAD4   8606    2       8981    9000    9001    8982    0
CQUAD4   8607    2       8982    9001    9002    8983    0
CTRIA3   8608    2       8983    9002    9326    0
CQUAD4   8609    2       8985    7692    7691    9004    0
CQUAD4   8610    2       8986    8985    9004    9005    0
CQUAD4   8611    2       8987    8986    9005    9006    0
CQUAD4   8612    2       8988    8987    9006    9007    0
CQUAD4   8613    2       8989    8988    9007    9008    0
CQUAD4   8614    2       8990    8989    9008    9009    0
CQUAD4   8615    2       8991    8990    9009    9010    0
CQUAD4   8616    2       8992    8991    9010    9011    0
CQUAD4   8617    2       8993    8992    9011    9012    0
CQUAD4   8618    2       8994    8993    9012    9013    0
CQUAD4   8619    2       8995    8994    9013    9014    0
CQUAD4   8620    2       8996    8995    9014    9015    0
CQUAD4   8621    2       8997    8996    9015    9016    0
CQUAD4   8622    2       8998    8997    9016    9017    0
CQUAD4   8623    2       8999    8998    9017    9018    0
CQUAD4   8624    2       9000    8999    9018    9019    0
CQUAD4   8625    2       9000    9019    9020    9001    0
CQUAD4   8626    2       9001    9020    9021    9002    0
CTRIA3   8627    2       9002    9021    9326    0
CQUAD4   8628    2       9004    7691    7690    9023    0
CQUAD4   8629    2       9005    9004    9023    9024    0
CQUAD4   8630    2       9006    9005    9024    9025    0
CQUAD4   8631    2       9007    9006    9025    9026    0
CQUAD4   8632    2       9008    9007    9026    9027    0
CQUAD4   8633    2       9009    9008    9027    9028    0
CQUAD4   8634    2       9010    9009    9028    9029    0
CQUAD4   8635    2       9011    9010    9029    9030    0
CQUAD4   8636    2       9012    9011    9030    9031    0
CQUAD4   8637    2       9013    9012    9031    9032    0
CQUAD4   8638    2       9014    9013    9032    9033    0
CQUAD4   8639    2       9015    9014    9033    9034    0
CQUAD4   8640    2       9016    9015    9034    9035    0
CQUAD4   8641    2       9017    9016    9035    9036    0
CQUAD4   8642    2       9018    9017    9036    9037    0
CQUAD4   8643    2       9019    9018    9037    9038    0
CQUAD4   8644    2       9019    9038    9039    9020    0
CQUAD4   8645    2       9020    9039    9040    9021    0
CTRIA3   8646    2       9021    9040    9326    0
CQUAD4   8647    2       9023    7690    7689    9042    0
CQUAD4   8648    2       9024    9023    9042    9043    0
CQUAD4   8649    2       9025    9024    9043    9044    0
CQUAD4   8650    2       9026    9025    9044    9045    0
CQUAD4   8651    2       9027    9026    9045    9046    0
CQUAD4   8652    2       9028    9027    9046    9047    0
CQUAD4   8653    2       9029    9028    9047    9048    0
CQUAD4   8654    2       9030    9029    9048    9049    0
CQUAD4   8655    2       9031    9030    9049    9050    0
CQUAD4   8656    2       9032    9031    9050    9051    0
CQUAD4   8657    2       9033    9032    9051    9052    0
CQUAD4   8658    2       9034    9033    9052    9053    0
CQUAD4   8659    2       9035    9034    9053    9054    0
CQUAD4   8660    2       9036    9035    9054    9055    0
CQUAD4   8661    2       9037    9036    9055    9056    0
CQUAD4   8662    2       9038    9037    9056    9057    0
CQUAD4   8663    2       9038    9057    9058    9039    0
CQUAD4   8664    2       9039    9058    9059    9040    0
CTRIA3   8665    2       9040    9059    9326    0
CQUAD4   8666    2       9042    7689    7688    9061    0
CQUAD4   8667    2       9043    9042    9061    9062    0
CQUAD4   8668    2       9044    9043    9062    9063    0
CQUAD4   8669    2       9045    9044    9063    9064    0
CQUAD4   8670    2       9046    9045    9064    9065    0
CQUAD4   8671    2       9047    9046    9065    9066    0
CQUAD4   8672    2       9048    9047    9066    9067    0
CQUAD4   8673    2       9049    9048    9067    9068    0
CQUAD4   8674    2       9050    9049    9068    9069    0
CQUAD4   8675    2       9051    9050    9069    9070    0
CQUAD4   8676    2       9052    9051    9070    9071    0
CQUAD4   8677    2       9053    9052    9071    9072    0
CQUAD4   8678    2       9054    9053    9072    9073    0
CQUAD4   8679    2       9055    9054    9073    9074    0
CQUAD4   8680    2       9056    9055    9074    9075    0
CQUAD4   8681    2       9057    9056    9075    9076    0
CQUAD4   8682    2       9057    9076    9077    9058    0
CQUAD4   8683    2       9058    9077    9078    9059    0
CTRIA3   8684    2       9059    9078    9326    0
CQUAD4   8685    2       9061    7688    7687    9080    0
CQUAD4   8686    2       9062    9061    9080    9081    0
CQUAD4   8687    2       9063    9062    9081    9082    0
CQUAD4   8688    2       9064    9063    9082    9083    0
CQUAD4   8689    2       9065    9064    9083    9084    0
CQUAD4   8690    2       9066    9065    9084    9085    0
CQUAD4   8691    2       9067    9066    9085    9086    0
CQUAD4   8692    2       9068    9067    9086    9087    0
CQUAD4   8693    2       9069    9068    9087    9088    0
CQUAD4   8694    2       9070    9069    9088    9089    0
CQUAD4   8695    2       9071    9070    9089    9090    0
CQUAD4   8696    2       9072    9071    9090    9091    0
CQUAD4   8697    2       9073    9072    9091    9092    0
CQUAD4   8698    2       9074    9073    9092    9093    0
CQUAD4   8699    2       9075    9074    9093    9094    0
CQUAD4   8700    2       9076    9075    9094    9095    0
CQUAD4   8701    2       9076    9095    9096    9077    0
CQUAD4   8702    2       9077    9096    9097    9078    0
CTRIA3   8703    2       9078    9097    9326    0
CQUAD4   8704    2       9080    7687    7686    9099    0
CQUAD4   8705    2       9081    9080    9099    9100    0
CQUAD4   8706    2       9082    9081    9100    9101    0
CQUAD4   8707    2       9083    9082    9101    9102    0
CQUAD4   8708    2       9084    9083    9102    9103    0
CQUAD4   8709    2       9085    9084    9103    9104    0
CQUAD4   8710    2       9086    9085    9104    9105    0
CQUAD4   8711    2       9087    9086    9105    9106    0
CQUAD4   8712    2       9088    9087    9106    9107    0
CQUAD4   8713    2       9089    9088    9107    9108    0
CQUAD4   8714    2       9090    9089    9108    9109    0
CQUAD4   8715    2       9091    9090    9109    9110    0
CQUAD4   8716    2       9092    9091    9110    9111    0
CQUAD4   8717    2       9093    9092    9111    9112    0
CQUAD4   8718    2       9094    9093    9112    9113    0
CQUAD4   8719    2       9095    9094    9113    9114    0
CQUAD4   8720    2       9095    9114    9115    9096    0
CQUAD4   8721    2       9096    9115    9116    9097    0
CTRIA3   8722    2       9097    9116    9326    0
CQUAD4   8724    2       9100    9099    9118    9119    0
CQUAD4   8725    2       9101    9100    9119    9120    0
CQUAD4   8726    2       9102    9101    9120    9121    0
CQUAD4   8727    2       9103    9102    9121    9122    0
CQUAD4   8728    2       9104    9103    9122    9123    0
CQUAD4   8729    2       9105    9104    9123    9124    0
CQUAD4   8730    2       9106    9105    9124    9125    0
CQUAD4   8731    2       9107    9106    9125    9126    0
CQUAD4   8732    2       9108    9107    9126    9127    0
CQUAD4   8733    2       9109    9108    9127    9128    0
CQUAD4   8734    2       9110    9109    9128    9129    0
CQUAD4   8735    2       9111    9110    9129    9130    0
CQUAD4   8736    2       9112    9111    9130    9131    0
CQUAD4   8737    2       9113    9112    9131    9132    0
CQUAD4   8738    2       9114    9113    9132    9133    0
CQUAD4   8739    2       9114    9133    9134    9115    0
CQUAD4   8740    2       9115    9134    9135    9116    0
CTRIA3   8741    2       9116    9135    9326    0
CQUAD4   8742    2       9118    7685    7684    9137    0
CQUAD4   8743    2       9119    9118    9137    9138    0
CQUAD4   8744    2       9120    9119    9138    9139    0
CQUAD4   8745    2       9121    9120    9139    9140    0
CQUAD4   8746    2       9122    9121    9140    9141    0
CQUAD4   8747    2       9123    9122    9141    9142    0
CQUAD4   8748    2       9124    9123    9142    9143    0
CQUAD4   8749    2       9125    9124    9143    9144    0
CQUAD4   8750    2       9126    9125    9144    9145    0
CQUAD4   8751    2       9127    9126    9145    9146    0
CQUAD4   8752    2       9128    9127    9146    9147    0
CQUAD4   8753    2       9129    9128    9147    9148    0
CQUAD4   8754    2       9130    9129    9148    9149    0
CQUAD4   8755    2       9131    9130    9149    9150    0
CQUAD4   8756    2       9132    9131    9150    9151    0
CQUAD4   8757    2       9133    9132    9151    9152    0
CQUAD4   8758    2       9133    9152    9153    9134    0
CQUAD4   8759    2       9134    9153    9154    9135    0
CTRIA3   8760    2       9135    9154    9326    0
CQUAD4   8761    2       9137    7684    7683    9156    0
CQUAD4   8762    2       9138    9137    9156    9157    0
CQUAD4   8763    2       9139    9138    9157    9158    0
CQUAD4   8764    2       9140    9139    9158    9159    0
CQUAD4   8765    2       9141    9140    9159    9160    0
CQUAD4   8766    2       9142    9141    9160    9161    0
CQUAD4   8767    2       9143    9142    9161    9162    0
CQUAD4   8768    2       9144    9143    9162    9163    0
CQUAD4   8769    2       9145    9144    9163    9164    0
CQUAD4   8770    2       9146    9145    9164    9165    0
CQUAD4   8771    2       9147    9146    9165    9166    0
CQUAD4   8772    2       9148    9147    9166    9167    0
CQUAD4   8773    2       9149    9148    9167    9168    0
CQUAD4   8774    2       9150    9149    9168    9169    0
CQUAD4   8775    2       9151    9150    9169    9170    0
CQUAD4   8776    2       9152    9151    9170    9171    0
CQUAD4   8777    2       9152    9171    9172    9153    0
CQUAD4   8778    2       9153    9172    9173    9154    0
CTRIA3   8779    2       9154    9173    9326    0
CQUAD4   8780    2       9156    7683    7682    9175    0
CQUAD4   8781    2       9157    9156    9175    9176    0
CQUAD4   8782    2       9158    9157    9176    9177    0
CQUAD4   8783    2       9159    9158    9177    9178    0
CQUAD4   8784    2       9160    9159    9178    9179    0
CQUAD4   8785    2       9161    9160    9179    9180    0
CQUAD4   8786    2       9162    9161    9180    9181    0
CQUAD4   8787    2       9163    9162    9181    9182    0
CQUAD4   8788    2       9164    9163    9182    9183    0
CQUAD4   8789    2       9165    9164    9183    9184    0
CQUAD4   8790    2       9166    9165    9184    9185    0
CQUAD4   8791    2       9167    9166    9185    9186    0
CQUAD4   8792    2       9168    9167    9186    9187    0
CQUAD4   8793    2       9169    9168    9187    9188    0
CQUAD4   8794    2       9170    9169    9188    9189    0
CQUAD4   8795    2       9171    9170    9189    9190    0
CQUAD4   8796    2       9171    9190    9191    9172    0
CQUAD4   8797    2       9172    9191    9192    9173    0
CTRIA3   8798    2       9173    9192    9326    0
CQUAD4   8799    2       9175    7682    7681    9194    0
CQUAD4   8800    2       9176    9175    9194    9195    0
CQUAD4   8801    2       9177    9176    9195    9196    0
CQUAD4   8802    2       9178    9177    9196    9197    0
CQUAD4   8803    2       9179    9178    9197    9198    0
CQUAD4   8804    2       9180    9179    9198    9199    0
CQUAD4   8805    2       9181    9180    9199    9200    0
CQUAD4   8806    2       9182    9181    9200    9201    0
CQUAD4   8807    2       9183    9182    9201    9202    0
CQUAD4   8808    2       9184    9183    9202    9203    0
CQUAD4   8809    2       9185    9184    9203    9204    0
CQUAD4   8810    2       9186    9185    9204    9205    0
CQUAD4   8811    2       9187    9186    9205    9206    0
CQUAD4   8812    2       9188    9187    9206    9207    0
CQUAD4   8813    2       9189    9188    9207    9208    0
CQUAD4   8814    2       9190    9189    9208    9209    0
CQUAD4   8815    2       9190    9209    9210    9191    0
CQUAD4   8816    2       9191    9210    9211    9192    0
CTRIA3   8817    2       9192    9211    9326    0
CQUAD4   8818    2       9194    7681    7680    9213    0
CQUAD4   8819    2       9195    9194    9213    9214    0
CQUAD4   8820    2       9196    9195    9214    9215    0
CQUAD4   8821    2       9197    9196    9215    9216    0
CQUAD4   8822    2       9198    9197    9216    9217    0
CQUAD4   8823    2       9199    9198    9217    9218    0
CQUAD4   8824    2       9200    9199    9218    9219    0
CQUAD4   8825    2       9201    9200    9219    9220    0
CQUAD4   8826    2       9202    9201    9220    9221    0
CQUAD4   8827    2       9203    9202    9221    9222    0
CQUAD4   8828    2       9204    9203    9222    9223    0
CQUAD4   8829    2       9205    9204    9223    9224    0
CQUAD4   8830    2       9206    9205    9224    9225    0
CQUAD4   8831    2       9207    9206    9225    9226    0
CQUAD4   8832    2       9208    9207    9226    9227    0
CQUAD4   8833    2       9209    9208    9227    9228    0
CQUAD4   8834    2       9209    9228    9229    9210    0
CQUAD4   8835    2       9210    9229    9230    9211    0
CTRIA3   8836    2       9211    9230    9326    0
CQUAD4   8837    2       9213    7680    7679    9232    0
CQUAD4   8838    2       9214    9213    9232    9233    0
CQUAD4   8839    2       9215    9214    9233    9234    0
CQUAD4   8840    2       9216    9215    9234    9235    0
CQUAD4   8841    2       9217    9216    9235    9236    0
CQUAD4   8842    2       9218    9217    9236    9237    0
CQUAD4   8843    2       9219    9218    9237    9238    0
CQUAD4   8844    2       9220    9219    9238    9239    0
CQUAD4   8845    2       9221    9220    9239    9240    0
CQUAD4   8846    2       9222    9221    9240    9241    0
CQUAD4   8847    2       9223    9222    9241    9242    0
CQUAD4   8848    2       9224    9223    9242    9243    0
CQUAD4   8849    2       9225    9224    9243    9244    0
CQUAD4   8850    2       9226    9225    9244    9245    0
CQUAD4   8851    2       9227    9226    9245    9246    0
CQUAD4   8852    2       9228    9227    9246    9247    0
CQUAD4   8853    2       9228    9247    9248    9229    0
CQUAD4   8854    2       9229    9248    9249    9230    0
CTRIA3   8855    2       9230    9249    9326    0
CQUAD4   8856    2       9232    7679    7678    9251    0
CQUAD4   8857    2       9233    9232    9251    9252    0
CQUAD4   8858    2       9234    9233    9252    9253    0
CQUAD4   8859    2       9235    9234    9253    9254    0
CQUAD4   8860    2       9236    9235    9254    9255    0
CQUAD4   8861    2       9237    9236    9255    9256    0
CQUAD4   8862    2       9238    9237    9256    9257    0
CQUAD4   8863    2       9239    9238    9257    9258    0
CQUAD4   8864    2       9240    9239    9258    9259    0
CQUAD4   8865    2       9241    9240    9259    9260    0
CQUAD4   8866    2       9242    9241    9260    9261    0
CQUAD4   8867    2       9243    9242    9261    9262    0
CQUAD4   8868    2       9244    9243    9262    9263    0
CQUAD4   8869    2       9245    9244    9263    9264    0
CQUAD4   8870    2       9246    9245    9264    9265    0
CQUAD4   8871    2       9247    9246    9265    9266    0
CQUAD4   8872    2       9247    9266    9267    9248    0
CQUAD4   8873    2       9248    9267    9268    9249    0
CTRIA3   8874    2       9249    9268    9326    0
CQUAD4   8875    2       9251    7678    7677    9270    0
CQUAD4   8876    2       9252    9251    9270    9271    0
CQUAD4   8877    2       9253    9252    9271    9272    0
CQUAD4   8878    2       9254    9253    9272    9273    0
CQUAD4   8879    2       9255    9254    9273    9274    0
CQUAD4   8880    2       9256    9255    9274    9275    0
CQUAD4   8881    2       9257    9256    9275    9276    0
CQUAD4   8882    2       9258    9257    9276    9277    0
CQUAD4   8883    2       9259    9258    9277    9278    0
CQUAD4   8884    2       9260    9259    9278    9279    0
CQUAD4   8885    2       9261    9260    9279    9280    0
CQUAD4   8886    2       9262    9261    9280    9281    0
CQUAD4   8887    2       9263    9262    9281    9282    0
CQUAD4   8888    2       9264    9263    9282    9283    0
CQUAD4   8889    2       9265    9264    9283    9284    0
CQUAD4   8890    2       9266    9265    9284    9285    0
CQUAD4   8891    2       9266    9285    9286    9267    0
CQUAD4   8892    2       9267    9286    9287    9268    0
CTRIA3   8893    2       9268    9287    9326    0
CQUAD4   8894    2       9270    7677    7676    9289    0
CQUAD4   8895    2       9271    9270    9289    9290    0
CQUAD4   8896    2       9272    9271    9290    9291    0
CQUAD4   8897    2       9273    9272    9291    9292    0
CQUAD4   8898    2       9274    9273    9292    9293    0
CQUAD4   8899    2       9275    9274    9293    9294    0
CQUAD4   8900    2       9276    9275    9294    9295    0
CQUAD4   8901    2       9277    9276    9295    9296    0
CQUAD4   8902    2       9278    9277    9296    9297    0
CQUAD4   8903    2       9279    9278    9297    9298    0
CQUAD4   8904    2       9280    9279    9298    9299    0
CQUAD4   8905    2       9281    9280    9299    9300    0
CQUAD4   8906    2       9282    9281    9300    9301    0
CQUAD4   8907    2       9283    9282    9301    9302    0
CQUAD4   8908    2       9284    9283    9302    9303    0
CQUAD4   8909    2       9285    9284    9303    9304    0
CQUAD4   8910    2       9285    9304    9305    9286    0
CQUAD4   8911    2       9286    9305    9306    9287    0
CTRIA3   8912    2       9287    9306    9326    0
CQUAD4   8913    2       9289    7676    7717    8510    0
CQUAD4   8914    2       9290    9289    8510    8511    0
CQUAD4   8915    2       9291    9290    8511    8512    0
CQUAD4   8916    2       9292    9291    8512    8513    0
CQUAD4   8917    2       9293    9292    8513    8514    0
CQUAD4   8918    2       9294    9293    8514    8515    0
CQUAD4   8919    2       9295    9294    8515    8516    0
CQUAD4   8920    2       9296    9295    8516    8517    0
CQUAD4   8921    2       9297    9296    8517    8518    0
CQUAD4   8922    2       9298    9297    8518    8519    0
CQUAD4   8923    2       9299    9298    8519    8520    0
CQUAD4   8924    2       9300    9299    8520    8521    0
CQUAD4   8925    2       9301    9300    8521    8522    0
CQUAD4   8926    2       9302    9301    8522    8523    0
CQUAD4   8927    2       9303    9302    8523    8524    0
CQUAD4   8928    2       9304    9303    8524    8525    0
CQUAD4   8929    2       9304    8525    8526    9305    0
CQUAD4   8930    2       9305    8526    8527    9306    0
CTRIA3   8931    2       9306    8527    9326    0
CQUAD4   8932    2       8455    8487    9327    8454    0
CQUAD4   8933    2       8487    8493    8494    9327    0
CQUAD4   8934    2       8454    9327    8486    8453    0
CQUAD4   8935    2       9327    8494    8495    8486    0
CQUAD4   8936    2       9328    8164    8163    8388    0
CQUAD4   8937    2       8456    9328    8388    8457    0
CQUAD4   8938    2       8455    8389    9328    8456    0
CQUAD4   8939    2       8164    9328    8389    8165    0
CQUAD4   8952    2       7708    7801    7781    7707    0
CQUAD4   8953    2       8681    7708    7707    8700    0
CTRIA3   8954    2       7706    8719    7566    0
CTRIA3   8955    2       7566    8719    8700    0
CTRIA3   8956    2       8700    7707    7566    0
CQUAD4   8957    2       7594    7585    7686    7774    0
CTRIA3   8958    2       7585    7594    7685    0
CTRIA3   8959    2       9099    7686    7585    0
CTRIA3   8960    2       9099    7585    9118    0
CTRIA3   8961    2       7685    9118    7585    0
$ Elements and Element Properties for region : pbush.001
PBUSH    1       K      1000.   1000.   1000.
$ Pset: "pbush.001" will be imported as: "pbush.1"
CBUSH    8962    1       8436    10000                           0
CBUSH    8963    1       50      10001                           0
CBUSH    8964    1       3882    10002                           0
$ Referenced Material Records
$ Material Record : m_temp
$ Description of Material :
MAT1     1      80000.  120000. .34     .12     .34     70.
$ Nodes of the Entire Model
GRID     1              55.     4.5      0.
GRID     2              55.     4.472743.4945384
GRID     3              55.     4.391298.983108
GRID     4              55.     4.2566561.459754
GRID     5              55.     4.0704531.9187
GRID     6              55.     3.8349292.354426
GRID     7              55.     3.5529442.761628
GRID     8              55.     3.2279353.135353
GRID     9              55.     2.8638023.471114
GRID     10             55.     2.4649743.764824
GRID     11             55.     2.0363064.012911
GRID     12             55.     1.5829564.212392
GRID     13             55.     1.1104154.360846
GRID     14             55.     .62444324.456464
GRID     15             55.     .13090754.498096
GRID     16             55.     -.3642374.485235
GRID     17             55.     -.8549554.418037
GRID     18             55.     -1.3353 4.297322
GRID     19             55.     -1.799494.124539
GRID     20             55.     -2.241863.901797
$ ... 6939 like lines cut
$ Loads for Load Case : test_1
LOAD     2      1.      1.       1      1.       3      1.       4
        1.       5
$ Nodal Forces of Load Set : 1k_-x_LH
FORCE    3       1040    0      1000.   -1.      0.      0.
$ Nodal Forces of Load Set : 1k_-x_RH
FORCE    4       1560    0      1000.   -1.      0.      0.
$ Nodal Forces of Load Set : 1k_-x_T
FORCE    5       1300    0      1000.   -1.      0.      0.
$ Pressures of Total Load Set : totLoad_3k_x
PLOAD4   1       7288   15.0839                          THRU    7289
                1.       0.      0.
PLOAD4   1       7297   15.0839
                1.       0.      0.
PLOAD4   1       7299   15.0839                          THRU    7302
                1.       0.      0.
PLOAD4   1       7304   15.0839                          THRU    7312
                1.       0.      0.
PLOAD4   1       7315   15.0839                          THRU    7318
                1.       0.      0.
PLOAD4   1       7320   15.0839                          THRU    7321
                1.       0.      0.
PLOAD4   1       7323   15.0839                          THRU    7327
                1.       0.      0.
PLOAD4   1       7329   15.0839                          THRU    7348
                1.       0.      0.
PLOAD4   1       7350   15.0839                          THRU    7367
                1.       0.      0.
PLOAD4   1       7427   15.0839                          THRU    7432
                1.       0.      0.
PLOAD4   1       7437   15.0839                          THRU    7459
                1.       0.      0.
PLOAD4   1       7466   15.0839                          THRU    7491
                1.       0.      0.
PLOAD4   1       7494   15.0839                          THRU    7500
                1.       0.      0.
PLOAD4   1       7568   15.0839                          THRU    7569
                1.       0.      0.
PLOAD4   1       7578   15.0839                          THRU    7599
                1.       0.      0.
PLOAD4   1       7605   15.0839                          THRU    7610
                1.       0.      0.
PLOAD4   1       7615   15.0839                          THRU    7619
                1.       0.      0.
PLOAD4   1       7624   15.0839                          THRU    7639
                1.       0.      0.
PLOAD4   1       7707   15.0839                          THRU    7738
                1.       0.      0.
PLOAD4   1       7747   15.0839                          THRU    7750
                1.       0.      0.
PLOAD4   1       7756   15.0839                          THRU    7759
                1.       0.      0.
PLOAD4   1       7765   15.0839
                1.       0.      0.
PLOAD4   1       7841   15.0839                          THRU    7850
                1.       0.      0.
PLOAD4   1       7854   15.0839                          THRU    7855
                1.       0.      0.
PLOAD4   1       7886   15.0839                          THRU    7893
                1.       0.      0.
PLOAD4   1       7942   15.0839
                1.       0.      0.
PLOAD4   1       7946   15.0839                          THRU    7949
                1.       0.      0.
PLOAD4   1       7966   15.0839                          THRU    7968
                1.       0.      0.
PLOAD4   1       7978   15.0839                          THRU    7981
                1.       0.      0.
PLOAD4   1       7984   15.0839                          THRU    7994
                1.       0.      0.
PLOAD4   1       8044   15.0839                          THRU    8047
                1.       0.      0.
PLOAD4   1       8049   15.0839                          THRU    8051
                1.       0.      0.
PLOAD4   1       8053   15.0839                          THRU    8054
                1.       0.      0.
PLOAD4   1       8057   15.0839                          THRU    8058
                1.       0.      0.
PLOAD4   1       8060   15.0839
                1.       0.      0.
PLOAD4   1       8084   15.0839                          THRU    8088
                1.       0.      0.
PLOAD4   1       8092   15.0839                          THRU    8095
                1.       0.      0.
PLOAD4   1       8100   15.0839
                1.       0.      0.
PLOAD4   1       8116   15.0839                          THRU    8118
                1.       0.      0.
PLOAD4   1       8134   15.0839                          THRU    8304
                1.       0.      0.
PLOAD4   1       8306   15.0839                          THRU    8323
                1.       0.      0.
PLOAD4   1       8325   15.0839                          THRU    8722
                1.       0.      0.
PLOAD4   1       8724   15.0839                          THRU    8932
                1.       0.      0.
PLOAD4   1       8936   15.0839                          THRU    8939
                1.       0.      0.
PLOAD4   1       8952   15.0839                          THRU    8961
                1.       0.      0.

$
$       MODEL GROUND POINTS     $
$
SPC     1       10000   123     0
SPC     1       10001   123     0
SPC     1       10002   123     0
$
$

$ Referenced Coordinate Frames
ENDDATA db8fc102